<?xml version="1.0" encoding="UTF-8"?>

<!-- generated on 2024-09-15 09:00:45 by Eclipse SUMO netgenerate Version 1.20.0
<configuration xmlns:xsi="http://www.w3.org/2001/XMLSchema-instance" xsi:noNamespaceSchemaLocation="http://sumo.dlr.de/xsd/netgenerateConfiguration.xsd">

    <grid_network>
        <grid value="true"/>
        <grid.number value="3"/>
        <grid.length value="300"/>
    </grid_network>

    <output>
        <output-file value="src/sumo_files/road.net.xml"/>
    </output>

    <building_defaults>
        <default.lanenumber value="3"/>
        <default-junction-type value="traffic_light"/>
    </building_defaults>

    <junctions>
        <no-turnarounds value="true"/>
        <junctions.join-turns value="true"/>
    </junctions>

</configuration>
-->

<net version="1.20" junctionCornerDetail="5" limitTurnSpeed="5.50" xmlns:xsi="http://www.w3.org/2001/XMLSchema-instance" xsi:noNamespaceSchemaLocation="http://sumo.dlr.de/xsd/net_file.xsd">

    <location netOffset="0.00,0.00" convBoundary="0.00,0.00,600.00,600.00" origBoundary="0.00,0.00,600.00,600.00" projParameter="!"/>

    <edge id=":A0_0" function="internal">
        <lane id=":A0_0_0" index="0" speed="11.12" length="23.22" shape="-8.00,9.60 -6.90,1.90 -3.60,-3.60 1.90,-6.90 9.60,-8.00"/>
        <lane id=":A0_0_1" index="1" speed="10.10" length="23.22" shape="-4.80,9.60 -3.90,3.30 -1.20,-1.20 3.30,-3.90 9.60,-4.80"/>
        <lane id=":A0_0_2" index="2" speed="8.96" length="23.22" shape="-1.60,9.60 -0.90,4.70 1.20,1.20 4.70,-0.90 9.60,-1.60"/>
    </edge>
    <edge id=":A0_3" function="internal">
        <lane id=":A0_3_0" index="0" speed="3.90" length="7.74" shape="9.60,8.00 8.90,8.10 8.40,8.40 8.10,8.90 8.00,9.60"/>
        <lane id=":A0_3_1" index="1" speed="6.08" length="7.74" shape="9.60,4.80 7.50,5.10 6.00,6.00 5.10,7.50 4.80,9.60"/>
        <lane id=":A0_3_2" index="2" speed="7.66" length="7.74" shape="9.60,1.60 6.10,2.10 3.60,3.60 2.10,6.10 1.60,9.60"/>
    </edge>
    <edge id=":A1_0" function="internal">
        <lane id=":A1_0_0" index="0" speed="13.89" length="27.20" shape="-8.00,313.60 -8.00,286.40"/>
        <lane id=":A1_0_1" index="1" speed="13.89" length="27.20" shape="-4.80,313.60 -4.80,286.40"/>
        <lane id=":A1_0_2" index="2" speed="13.89" length="27.20" shape="-1.60,313.60 -1.60,286.40"/>
    </edge>
    <edge id=":A1_3" function="internal">
        <lane id=":A1_3_0" index="0" speed="10.88" length="5.52" shape="-1.60,313.60 -0.89,307.62"/>
        <lane id=":A1_3_1" index="1" speed="10.36" length="5.52" shape="-1.60,313.60 -0.89,308.64"/>
    </edge>
    <edge id=":A1_13" function="internal">
        <lane id=":A1_13_0" index="0" speed="10.88" length="21.12" shape="-0.89,307.62 -0.65,305.55 2.20,299.80 6.95,296.35 13.60,295.20"/>
    </edge>
    <edge id=":A1_14" function="internal">
        <lane id=":A1_14_0" index="0" speed="10.36" length="19.50" shape="-0.89,308.64 -0.65,306.95 2.20,302.20 6.95,299.35 13.60,298.40"/>
    </edge>
    <edge id=":A1_5" function="internal">
        <lane id=":A1_5_0" index="0" speed="6.51" length="11.61" shape="13.60,308.00 11.15,308.35 9.40,309.40 8.35,311.15 8.00,313.60"/>
        <lane id=":A1_5_1" index="1" speed="8.00" length="11.61" shape="13.60,304.80 9.75,305.35 7.00,307.00 5.35,309.75 4.80,313.60"/>
    </edge>
    <edge id=":A1_7" function="internal">
        <lane id=":A1_7_0" index="0" speed="10.88" length="25.83" shape="13.60,301.60 5.55,300.65 -0.20,297.80 -3.65,293.05 -4.80,286.40"/>
        <lane id=":A1_7_1" index="1" speed="10.36" length="25.83" shape="13.60,301.60 6.95,300.65 2.20,297.80 -0.65,293.05 -1.60,286.40"/>
    </edge>
    <edge id=":A1_9" function="internal">
        <lane id=":A1_9_0" index="0" speed="6.51" length="9.03" shape="8.00,286.40 8.35,288.85 9.40,290.60 11.15,291.65 13.60,292.00"/>
    </edge>
    <edge id=":A1_10" function="internal">
        <lane id=":A1_10_0" index="0" speed="13.89" length="27.20" shape="8.00,286.40 8.00,313.60"/>
        <lane id=":A1_10_1" index="1" speed="13.89" length="27.20" shape="4.80,286.40 4.80,313.60"/>
        <lane id=":A1_10_2" index="2" speed="13.89" length="27.20" shape="1.60,286.40 1.60,313.60"/>
    </edge>
    <edge id=":A2_0" function="internal">
        <lane id=":A2_0_0" index="0" speed="11.12" length="23.22" shape="9.60,608.00 1.90,606.90 -3.60,603.60 -6.90,598.10 -8.00,590.40"/>
        <lane id=":A2_0_1" index="1" speed="10.10" length="23.22" shape="9.60,604.80 3.30,603.90 -1.20,601.20 -3.90,596.70 -4.80,590.40"/>
        <lane id=":A2_0_2" index="2" speed="8.96" length="23.22" shape="9.60,601.60 4.70,600.90 1.20,598.80 -0.90,595.30 -1.60,590.40"/>
    </edge>
    <edge id=":A2_3" function="internal">
        <lane id=":A2_3_0" index="0" speed="3.90" length="7.74" shape="8.00,590.40 8.10,591.10 8.40,591.60 8.90,591.90 9.60,592.00"/>
        <lane id=":A2_3_1" index="1" speed="6.08" length="7.74" shape="4.80,590.40 5.10,592.50 6.00,594.00 7.50,594.90 9.60,595.20"/>
        <lane id=":A2_3_2" index="2" speed="7.66" length="7.74" shape="1.60,590.40 2.10,593.90 3.60,596.40 6.10,597.90 9.60,598.40"/>
    </edge>
    <edge id=":B0_0" function="internal">
        <lane id=":B0_0_0" index="0" speed="6.51" length="11.61" shape="292.00,13.60 291.65,11.15 290.60,9.40 288.85,8.35 286.40,8.00"/>
        <lane id=":B0_0_1" index="1" speed="8.00" length="11.61" shape="295.20,13.60 294.65,9.75 293.00,7.00 290.25,5.35 286.40,4.80"/>
    </edge>
    <edge id=":B0_2" function="internal">
        <lane id=":B0_2_0" index="0" speed="10.88" length="25.83" shape="298.40,13.60 299.35,5.55 302.20,-0.20 306.95,-3.65 313.60,-4.80"/>
        <lane id=":B0_2_1" index="1" speed="10.36" length="25.83" shape="298.40,13.60 299.35,6.95 302.20,2.20 306.95,-0.65 313.60,-1.60"/>
    </edge>
    <edge id=":B0_4" function="internal">
        <lane id=":B0_4_0" index="0" speed="6.51" length="9.03" shape="313.60,8.00 311.15,8.35 309.40,9.40 308.35,11.15 308.00,13.60"/>
    </edge>
    <edge id=":B0_5" function="internal">
        <lane id=":B0_5_0" index="0" speed="13.89" length="27.20" shape="313.60,8.00 286.40,8.00"/>
        <lane id=":B0_5_1" index="1" speed="13.89" length="27.20" shape="313.60,4.80 286.40,4.80"/>
        <lane id=":B0_5_2" index="2" speed="13.89" length="27.20" shape="313.60,1.60 286.40,1.60"/>
    </edge>
    <edge id=":B0_8" function="internal">
        <lane id=":B0_8_0" index="0" speed="13.89" length="27.20" shape="286.40,-8.00 313.60,-8.00"/>
        <lane id=":B0_8_1" index="1" speed="13.89" length="27.20" shape="286.40,-4.80 313.60,-4.80"/>
        <lane id=":B0_8_2" index="2" speed="13.89" length="27.20" shape="286.40,-1.60 313.60,-1.60"/>
    </edge>
    <edge id=":B0_11" function="internal">
        <lane id=":B0_11_0" index="0" speed="10.88" length="5.52" shape="286.40,-1.60 292.38,-0.89"/>
        <lane id=":B0_11_1" index="1" speed="10.36" length="5.52" shape="286.40,-1.60 291.36,-0.89"/>
    </edge>
    <edge id=":B0_13" function="internal">
        <lane id=":B0_13_0" index="0" speed="10.88" length="21.12" shape="292.38,-0.89 294.45,-0.65 300.20,2.20 303.65,6.95 304.80,13.60"/>
    </edge>
    <edge id=":B0_14" function="internal">
        <lane id=":B0_14_0" index="0" speed="10.36" length="19.50" shape="291.36,-0.89 293.05,-0.65 297.80,2.20 300.65,6.95 301.60,13.60"/>
    </edge>
    <edge id=":B1_0" function="internal">
        <lane id=":B1_0_0" index="0" speed="6.51" length="9.03" shape="292.00,313.60 291.65,311.15 290.60,309.40 288.85,308.35 286.40,308.00"/>
    </edge>
    <edge id=":B1_1" function="internal">
        <lane id=":B1_1_0" index="0" speed="13.89" length="27.20" shape="292.00,313.60 292.00,286.40"/>
        <lane id=":B1_1_1" index="1" speed="13.89" length="27.20" shape="295.20,313.60 295.20,286.40"/>
        <lane id=":B1_1_2" index="2" speed="13.89" length="27.20" shape="298.40,313.60 298.40,286.40"/>
    </edge>
    <edge id=":B1_4" function="internal">
        <lane id=":B1_4_0" index="0" speed="10.36" length="5.01" shape="298.40,313.60 299.11,308.64"/>
    </edge>
    <edge id=":B1_20" function="internal">
        <lane id=":B1_20_0" index="0" speed="10.36" length="19.50" shape="299.11,308.64 299.35,306.95 302.20,302.20 306.95,299.35 313.60,298.40"/>
    </edge>
    <edge id=":B1_5" function="internal">
        <lane id=":B1_5_0" index="0" speed="6.51" length="9.03" shape="313.60,308.00 311.15,308.35 309.40,309.40 308.35,311.15 308.00,313.60"/>
    </edge>
    <edge id=":B1_6" function="internal">
        <lane id=":B1_6_0" index="0" speed="13.89" length="27.20" shape="313.60,308.00 286.40,308.00"/>
        <lane id=":B1_6_1" index="1" speed="13.89" length="27.20" shape="313.60,304.80 286.40,304.80"/>
        <lane id=":B1_6_2" index="2" speed="13.89" length="27.20" shape="313.60,301.60 286.40,301.60"/>
    </edge>
    <edge id=":B1_9" function="internal">
        <lane id=":B1_9_0" index="0" speed="10.36" length="5.01" shape="313.60,301.60 308.64,300.89"/>
    </edge>
    <edge id=":B1_21" function="internal">
        <lane id=":B1_21_0" index="0" speed="10.36" length="19.50" shape="308.64,300.89 306.95,300.65 302.20,297.80 299.35,293.05 298.40,286.40"/>
    </edge>
    <edge id=":B1_10" function="internal">
        <lane id=":B1_10_0" index="0" speed="6.51" length="9.03" shape="308.00,286.40 308.35,288.85 309.40,290.60 311.15,291.65 313.60,292.00"/>
    </edge>
    <edge id=":B1_11" function="internal">
        <lane id=":B1_11_0" index="0" speed="13.89" length="27.20" shape="308.00,286.40 308.00,313.60"/>
        <lane id=":B1_11_1" index="1" speed="13.89" length="27.20" shape="304.80,286.40 304.80,313.60"/>
        <lane id=":B1_11_2" index="2" speed="13.89" length="27.20" shape="301.60,286.40 301.60,313.60"/>
    </edge>
    <edge id=":B1_14" function="internal">
        <lane id=":B1_14_0" index="0" speed="10.36" length="5.01" shape="301.60,286.40 300.89,291.36"/>
    </edge>
    <edge id=":B1_22" function="internal">
        <lane id=":B1_22_0" index="0" speed="10.36" length="19.50" shape="300.89,291.36 300.65,293.05 297.80,297.80 293.05,300.65 286.40,301.60"/>
    </edge>
    <edge id=":B1_15" function="internal">
        <lane id=":B1_15_0" index="0" speed="6.51" length="9.03" shape="286.40,292.00 288.85,291.65 290.60,290.60 291.65,288.85 292.00,286.40"/>
    </edge>
    <edge id=":B1_16" function="internal">
        <lane id=":B1_16_0" index="0" speed="13.89" length="27.20" shape="286.40,292.00 313.60,292.00"/>
        <lane id=":B1_16_1" index="1" speed="13.89" length="27.20" shape="286.40,295.20 313.60,295.20"/>
        <lane id=":B1_16_2" index="2" speed="13.89" length="27.20" shape="286.40,298.40 313.60,298.40"/>
    </edge>
    <edge id=":B1_19" function="internal">
        <lane id=":B1_19_0" index="0" speed="10.36" length="5.01" shape="286.40,298.40 291.36,299.11"/>
    </edge>
    <edge id=":B1_23" function="internal">
        <lane id=":B1_23_0" index="0" speed="10.36" length="19.50" shape="291.36,299.11 293.05,299.35 297.80,302.20 300.65,306.95 301.60,313.60"/>
    </edge>
    <edge id=":B2_0" function="internal">
        <lane id=":B2_0_0" index="0" speed="13.89" length="27.20" shape="313.60,608.00 286.40,608.00"/>
        <lane id=":B2_0_1" index="1" speed="13.89" length="27.20" shape="313.60,604.80 286.40,604.80"/>
        <lane id=":B2_0_2" index="2" speed="13.89" length="27.20" shape="313.60,601.60 286.40,601.60"/>
    </edge>
    <edge id=":B2_3" function="internal">
        <lane id=":B2_3_0" index="0" speed="10.88" length="5.52" shape="313.60,601.60 307.62,600.89"/>
        <lane id=":B2_3_1" index="1" speed="10.36" length="5.52" shape="313.60,601.60 308.64,600.89"/>
    </edge>
    <edge id=":B2_13" function="internal">
        <lane id=":B2_13_0" index="0" speed="10.88" length="21.12" shape="307.62,600.89 305.55,600.65 299.80,597.80 296.35,593.05 295.20,586.40"/>
    </edge>
    <edge id=":B2_14" function="internal">
        <lane id=":B2_14_0" index="0" speed="10.36" length="19.50" shape="308.64,600.89 306.95,600.65 302.20,597.80 299.35,593.05 298.40,586.40"/>
    </edge>
    <edge id=":B2_5" function="internal">
        <lane id=":B2_5_0" index="0" speed="6.51" length="11.61" shape="308.00,586.40 308.35,588.85 309.40,590.60 311.15,591.65 313.60,592.00"/>
        <lane id=":B2_5_1" index="1" speed="8.00" length="11.61" shape="304.80,586.40 305.35,590.25 307.00,593.00 309.75,594.65 313.60,595.20"/>
    </edge>
    <edge id=":B2_7" function="internal">
        <lane id=":B2_7_0" index="0" speed="10.88" length="25.83" shape="301.60,586.40 300.65,594.45 297.80,600.20 293.05,603.65 286.40,604.80"/>
        <lane id=":B2_7_1" index="1" speed="10.36" length="25.83" shape="301.60,586.40 300.65,593.05 297.80,597.80 293.05,600.65 286.40,601.60"/>
    </edge>
    <edge id=":B2_9" function="internal">
        <lane id=":B2_9_0" index="0" speed="6.51" length="9.03" shape="286.40,592.00 288.85,591.65 290.60,590.60 291.65,588.85 292.00,586.40"/>
    </edge>
    <edge id=":B2_10" function="internal">
        <lane id=":B2_10_0" index="0" speed="13.89" length="27.20" shape="286.40,592.00 313.60,592.00"/>
        <lane id=":B2_10_1" index="1" speed="13.89" length="27.20" shape="286.40,595.20 313.60,595.20"/>
        <lane id=":B2_10_2" index="2" speed="13.89" length="27.20" shape="286.40,598.40 313.60,598.40"/>
    </edge>
    <edge id=":C0_0" function="internal">
        <lane id=":C0_0_0" index="0" speed="3.90" length="7.74" shape="592.00,9.60 591.90,8.90 591.60,8.40 591.10,8.10 590.40,8.00"/>
        <lane id=":C0_0_1" index="1" speed="6.08" length="7.74" shape="595.20,9.60 594.90,7.50 594.00,6.00 592.50,5.10 590.40,4.80"/>
        <lane id=":C0_0_2" index="2" speed="7.66" length="7.74" shape="598.40,9.60 597.90,6.10 596.40,3.60 593.90,2.10 590.40,1.60"/>
    </edge>
    <edge id=":C0_3" function="internal">
        <lane id=":C0_3_0" index="0" speed="11.12" length="23.22" shape="590.40,-8.00 598.10,-6.90 603.60,-3.60 606.90,1.90 608.00,9.60"/>
        <lane id=":C0_3_1" index="1" speed="10.10" length="23.22" shape="590.40,-4.80 596.70,-3.90 601.20,-1.20 603.90,3.30 604.80,9.60"/>
        <lane id=":C0_3_2" index="2" speed="8.96" length="23.22" shape="590.40,-1.60 595.30,-0.90 598.80,1.20 600.90,4.70 601.60,9.60"/>
    </edge>
    <edge id=":C1_0" function="internal">
        <lane id=":C1_0_0" index="0" speed="6.51" length="9.03" shape="592.00,313.60 591.65,311.15 590.60,309.40 588.85,308.35 586.40,308.00"/>
    </edge>
    <edge id=":C1_1" function="internal">
        <lane id=":C1_1_0" index="0" speed="13.89" length="27.20" shape="592.00,313.60 592.00,286.40"/>
        <lane id=":C1_1_1" index="1" speed="13.89" length="27.20" shape="595.20,313.60 595.20,286.40"/>
        <lane id=":C1_1_2" index="2" speed="13.89" length="27.20" shape="598.40,313.60 598.40,286.40"/>
    </edge>
    <edge id=":C1_4" function="internal">
        <lane id=":C1_4_0" index="0" speed="13.89" length="27.20" shape="608.00,286.40 608.00,313.60"/>
        <lane id=":C1_4_1" index="1" speed="13.89" length="27.20" shape="604.80,286.40 604.80,313.60"/>
        <lane id=":C1_4_2" index="2" speed="13.89" length="27.20" shape="601.60,286.40 601.60,313.60"/>
    </edge>
    <edge id=":C1_7" function="internal">
        <lane id=":C1_7_0" index="0" speed="10.88" length="5.52" shape="601.60,286.40 600.89,292.38"/>
        <lane id=":C1_7_1" index="1" speed="10.36" length="5.52" shape="601.60,286.40 600.89,291.36"/>
    </edge>
    <edge id=":C1_13" function="internal">
        <lane id=":C1_13_0" index="0" speed="10.88" length="21.12" shape="600.89,292.38 600.65,294.45 597.80,300.20 593.05,303.65 586.40,304.80"/>
    </edge>
    <edge id=":C1_14" function="internal">
        <lane id=":C1_14_0" index="0" speed="10.36" length="19.50" shape="600.89,291.36 600.65,293.05 597.80,297.80 593.05,300.65 586.40,301.60"/>
    </edge>
    <edge id=":C1_9" function="internal">
        <lane id=":C1_9_0" index="0" speed="6.51" length="11.61" shape="586.40,292.00 588.85,291.65 590.60,290.60 591.65,288.85 592.00,286.40"/>
        <lane id=":C1_9_1" index="1" speed="8.00" length="11.61" shape="586.40,295.20 590.25,294.65 593.00,293.00 594.65,290.25 595.20,286.40"/>
    </edge>
    <edge id=":C1_11" function="internal">
        <lane id=":C1_11_0" index="0" speed="10.88" length="25.83" shape="586.40,298.40 594.45,299.35 600.20,302.20 603.65,306.95 604.80,313.60"/>
        <lane id=":C1_11_1" index="1" speed="10.36" length="25.83" shape="586.40,298.40 593.05,299.35 597.80,302.20 600.65,306.95 601.60,313.60"/>
    </edge>
    <edge id=":C2_0" function="internal">
        <lane id=":C2_0_0" index="0" speed="11.12" length="23.22" shape="608.00,590.40 606.90,598.10 603.60,603.60 598.10,606.90 590.40,608.00"/>
        <lane id=":C2_0_1" index="1" speed="10.10" length="23.22" shape="604.80,590.40 603.90,596.70 601.20,601.20 596.70,603.90 590.40,604.80"/>
        <lane id=":C2_0_2" index="2" speed="8.96" length="23.22" shape="601.60,590.40 600.90,595.30 598.80,598.80 595.30,600.90 590.40,601.60"/>
    </edge>
    <edge id=":C2_3" function="internal">
        <lane id=":C2_3_0" index="0" speed="3.90" length="7.74" shape="590.40,592.00 591.10,591.90 591.60,591.60 591.90,591.10 592.00,590.40"/>
        <lane id=":C2_3_1" index="1" speed="6.08" length="7.74" shape="590.40,595.20 592.50,594.90 594.00,594.00 594.90,592.50 595.20,590.40"/>
        <lane id=":C2_3_2" index="2" speed="7.66" length="7.74" shape="590.40,598.40 593.90,597.90 596.40,596.40 597.90,593.90 598.40,590.40"/>
    </edge>

    <edge id="A0A1" from="A0" to="A1" priority="-1">
        <lane id="A0A1_0" index="0" speed="13.89" length="276.80" shape="8.00,9.60 8.00,286.40"/>
        <lane id="A0A1_1" index="1" speed="13.89" length="276.80" shape="4.80,9.60 4.80,286.40"/>
        <lane id="A0A1_2" index="2" speed="13.89" length="276.80" shape="1.60,9.60 1.60,286.40"/>
    </edge>
    <edge id="A0B0" from="A0" to="B0" priority="-1">
        <lane id="A0B0_0" index="0" speed="13.89" length="276.80" shape="9.60,-8.00 286.40,-8.00"/>
        <lane id="A0B0_1" index="1" speed="13.89" length="276.80" shape="9.60,-4.80 286.40,-4.80"/>
        <lane id="A0B0_2" index="2" speed="13.89" length="276.80" shape="9.60,-1.60 286.40,-1.60"/>
    </edge>
    <edge id="A1A0" from="A1" to="A0" priority="-1">
        <lane id="A1A0_0" index="0" speed="13.89" length="276.80" shape="-8.00,286.40 -8.00,9.60"/>
        <lane id="A1A0_1" index="1" speed="13.89" length="276.80" shape="-4.80,286.40 -4.80,9.60"/>
        <lane id="A1A0_2" index="2" speed="13.89" length="276.80" shape="-1.60,286.40 -1.60,9.60"/>
    </edge>
    <edge id="A1A2" from="A1" to="A2" priority="-1">
        <lane id="A1A2_0" index="0" speed="13.89" length="276.80" shape="8.00,313.60 8.00,590.40"/>
        <lane id="A1A2_1" index="1" speed="13.89" length="276.80" shape="4.80,313.60 4.80,590.40"/>
        <lane id="A1A2_2" index="2" speed="13.89" length="276.80" shape="1.60,313.60 1.60,590.40"/>
    </edge>
    <edge id="A1B1" from="A1" to="B1" priority="-1">
        <lane id="A1B1_0" index="0" speed="13.89" length="272.80" shape="13.60,292.00 286.40,292.00"/>
        <lane id="A1B1_1" index="1" speed="13.89" length="272.80" shape="13.60,295.20 286.40,295.20"/>
        <lane id="A1B1_2" index="2" speed="13.89" length="272.80" shape="13.60,298.40 286.40,298.40"/>
    </edge>
    <edge id="A2A1" from="A2" to="A1" priority="-1">
        <lane id="A2A1_0" index="0" speed="13.89" length="276.80" shape="-8.00,590.40 -8.00,313.60"/>
        <lane id="A2A1_1" index="1" speed="13.89" length="276.80" shape="-4.80,590.40 -4.80,313.60"/>
        <lane id="A2A1_2" index="2" speed="13.89" length="276.80" shape="-1.60,590.40 -1.60,313.60"/>
    </edge>
    <edge id="A2B2" from="A2" to="B2" priority="-1">
        <lane id="A2B2_0" index="0" speed="13.89" length="276.80" shape="9.60,592.00 286.40,592.00"/>
        <lane id="A2B2_1" index="1" speed="13.89" length="276.80" shape="9.60,595.20 286.40,595.20"/>
        <lane id="A2B2_2" index="2" speed="13.89" length="276.80" shape="9.60,598.40 286.40,598.40"/>
    </edge>
    <edge id="B0A0" from="B0" to="A0" priority="-1">
        <lane id="B0A0_0" index="0" speed="13.89" length="276.80" shape="286.40,8.00 9.60,8.00"/>
        <lane id="B0A0_1" index="1" speed="13.89" length="276.80" shape="286.40,4.80 9.60,4.80"/>
        <lane id="B0A0_2" index="2" speed="13.89" length="276.80" shape="286.40,1.60 9.60,1.60"/>
    </edge>
    <edge id="B0B1" from="B0" to="B1" priority="-1">
        <lane id="B0B1_0" index="0" speed="13.89" length="272.80" shape="308.00,13.60 308.00,286.40"/>
        <lane id="B0B1_1" index="1" speed="13.89" length="272.80" shape="304.80,13.60 304.80,286.40"/>
        <lane id="B0B1_2" index="2" speed="13.89" length="272.80" shape="301.60,13.60 301.60,286.40"/>
    </edge>
    <edge id="B0C0" from="B0" to="C0" priority="-1">
        <lane id="B0C0_0" index="0" speed="13.89" length="276.80" shape="313.60,-8.00 590.40,-8.00"/>
        <lane id="B0C0_1" index="1" speed="13.89" length="276.80" shape="313.60,-4.80 590.40,-4.80"/>
        <lane id="B0C0_2" index="2" speed="13.89" length="276.80" shape="313.60,-1.60 590.40,-1.60"/>
    </edge>
    <edge id="B1A1" from="B1" to="A1" priority="-1">
        <lane id="B1A1_0" index="0" speed="13.89" length="272.80" shape="286.40,308.00 13.60,308.00"/>
        <lane id="B1A1_1" index="1" speed="13.89" length="272.80" shape="286.40,304.80 13.60,304.80"/>
        <lane id="B1A1_2" index="2" speed="13.89" length="272.80" shape="286.40,301.60 13.60,301.60"/>
    </edge>
    <edge id="B1B0" from="B1" to="B0" priority="-1">
        <lane id="B1B0_0" index="0" speed="13.89" length="272.80" shape="292.00,286.40 292.00,13.60"/>
        <lane id="B1B0_1" index="1" speed="13.89" length="272.80" shape="295.20,286.40 295.20,13.60"/>
        <lane id="B1B0_2" index="2" speed="13.89" length="272.80" shape="298.40,286.40 298.40,13.60"/>
    </edge>
    <edge id="B1B2" from="B1" to="B2" priority="-1">
        <lane id="B1B2_0" index="0" speed="13.89" length="272.80" shape="308.00,313.60 308.00,586.40"/>
        <lane id="B1B2_1" index="1" speed="13.89" length="272.80" shape="304.80,313.60 304.80,586.40"/>
        <lane id="B1B2_2" index="2" speed="13.89" length="272.80" shape="301.60,313.60 301.60,586.40"/>
    </edge>
    <edge id="B1C1" from="B1" to="C1" priority="-1">
        <lane id="B1C1_0" index="0" speed="13.89" length="272.80" shape="313.60,292.00 586.40,292.00"/>
        <lane id="B1C1_1" index="1" speed="13.89" length="272.80" shape="313.60,295.20 586.40,295.20"/>
        <lane id="B1C1_2" index="2" speed="13.89" length="272.80" shape="313.60,298.40 586.40,298.40"/>
    </edge>
    <edge id="B2A2" from="B2" to="A2" priority="-1">
        <lane id="B2A2_0" index="0" speed="13.89" length="276.80" shape="286.40,608.00 9.60,608.00"/>
        <lane id="B2A2_1" index="1" speed="13.89" length="276.80" shape="286.40,604.80 9.60,604.80"/>
        <lane id="B2A2_2" index="2" speed="13.89" length="276.80" shape="286.40,601.60 9.60,601.60"/>
    </edge>
    <edge id="B2B1" from="B2" to="B1" priority="-1">
        <lane id="B2B1_0" index="0" speed="13.89" length="272.80" shape="292.00,586.40 292.00,313.60"/>
        <lane id="B2B1_1" index="1" speed="13.89" length="272.80" shape="295.20,586.40 295.20,313.60"/>
        <lane id="B2B1_2" index="2" speed="13.89" length="272.80" shape="298.40,586.40 298.40,313.60"/>
    </edge>
    <edge id="B2C2" from="B2" to="C2" priority="-1">
        <lane id="B2C2_0" index="0" speed="13.89" length="276.80" shape="313.60,592.00 590.40,592.00"/>
        <lane id="B2C2_1" index="1" speed="13.89" length="276.80" shape="313.60,595.20 590.40,595.20"/>
        <lane id="B2C2_2" index="2" speed="13.89" length="276.80" shape="313.60,598.40 590.40,598.40"/>
    </edge>
    <edge id="C0B0" from="C0" to="B0" priority="-1">
        <lane id="C0B0_0" index="0" speed="13.89" length="276.80" shape="590.40,8.00 313.60,8.00"/>
        <lane id="C0B0_1" index="1" speed="13.89" length="276.80" shape="590.40,4.80 313.60,4.80"/>
        <lane id="C0B0_2" index="2" speed="13.89" length="276.80" shape="590.40,1.60 313.60,1.60"/>
    </edge>
    <edge id="C0C1" from="C0" to="C1" priority="-1">
        <lane id="C0C1_0" index="0" speed="13.89" length="276.80" shape="608.00,9.60 608.00,286.40"/>
        <lane id="C0C1_1" index="1" speed="13.89" length="276.80" shape="604.80,9.60 604.80,286.40"/>
        <lane id="C0C1_2" index="2" speed="13.89" length="276.80" shape="601.60,9.60 601.60,286.40"/>
    </edge>
    <edge id="C1B1" from="C1" to="B1" priority="-1">
        <lane id="C1B1_0" index="0" speed="13.89" length="272.80" shape="586.40,308.00 313.60,308.00"/>
        <lane id="C1B1_1" index="1" speed="13.89" length="272.80" shape="586.40,304.80 313.60,304.80"/>
        <lane id="C1B1_2" index="2" speed="13.89" length="272.80" shape="586.40,301.60 313.60,301.60"/>
    </edge>
    <edge id="C1C0" from="C1" to="C0" priority="-1">
        <lane id="C1C0_0" index="0" speed="13.89" length="276.80" shape="592.00,286.40 592.00,9.60"/>
        <lane id="C1C0_1" index="1" speed="13.89" length="276.80" shape="595.20,286.40 595.20,9.60"/>
        <lane id="C1C0_2" index="2" speed="13.89" length="276.80" shape="598.40,286.40 598.40,9.60"/>
    </edge>
    <edge id="C1C2" from="C1" to="C2" priority="-1">
        <lane id="C1C2_0" index="0" speed="13.89" length="276.80" shape="608.00,313.60 608.00,590.40"/>
        <lane id="C1C2_1" index="1" speed="13.89" length="276.80" shape="604.80,313.60 604.80,590.40"/>
        <lane id="C1C2_2" index="2" speed="13.89" length="276.80" shape="601.60,313.60 601.60,590.40"/>
    </edge>
    <edge id="C2B2" from="C2" to="B2" priority="-1">
        <lane id="C2B2_0" index="0" speed="13.89" length="276.80" shape="590.40,608.00 313.60,608.00"/>
        <lane id="C2B2_1" index="1" speed="13.89" length="276.80" shape="590.40,604.80 313.60,604.80"/>
        <lane id="C2B2_2" index="2" speed="13.89" length="276.80" shape="590.40,601.60 313.60,601.60"/>
    </edge>
    <edge id="C2C1" from="C2" to="C1" priority="-1">
        <lane id="C2C1_0" index="0" speed="13.89" length="276.80" shape="592.00,590.40 592.00,313.60"/>
        <lane id="C2C1_1" index="1" speed="13.89" length="276.80" shape="595.20,590.40 595.20,313.60"/>
        <lane id="C2C1_2" index="2" speed="13.89" length="276.80" shape="598.40,590.40 598.40,313.60"/>
    </edge>

    <tlLogic id="A0" type="static" programID="0" offset="0">
        <phase duration="90" state="GGGGGG"/>
    </tlLogic>
    <tlLogic id="A1" type="static" programID="0" offset="0">
        <phase duration="42" state="GGGggrrrrGGGG"/>
        <phase duration="3"  state="yyyyyrrrrGyyy"/>
        <phase duration="42" state="rrrrrGGGGGrrr"/>
        <phase duration="3"  state="rrrrryyyyGrrr"/>
    </tlLogic>
    <tlLogic id="A2" type="static" programID="0" offset="0">
        <phase duration="90" state="GGGGGG"/>
    </tlLogic>
    <tlLogic id="B0" type="static" programID="0" offset="0">
        <phase duration="42" state="rrrrGGGGGGGgg"/>
        <phase duration="3"  state="rrrrGyyyyyyyy"/>
        <phase duration="42" state="GGGGGrrrrrrrr"/>
        <phase duration="3"  state="yyyyGrrrrrrrr"/>
    </tlLogic>
    <tlLogic id="B1" type="static" programID="0" offset="0">
        <phase duration="42" state="GGGGgrrrrrGGGGgrrrrr"/>
        <phase duration="3"  state="yyyyyrrrrryyyyyrrrrr"/>
        <phase duration="42" state="rrrrrGGGGgrrrrrGGGGg"/>
        <phase duration="3"  state="rrrrryyyyyrrrrryyyyy"/>
    </tlLogic>
    <tlLogic id="B2" type="static" programID="0" offset="0">
        <phase duration="42" state="GGGggrrrrGGGG"/>
        <phase duration="3"  state="yyyyyrrrrGyyy"/>
        <phase duration="42" state="rrrrrGGGGGrrr"/>
        <phase duration="3"  state="rrrrryyyyGrrr"/>
    </tlLogic>
    <tlLogic id="C0" type="static" programID="0" offset="0">
        <phase duration="90" state="GGGGGG"/>
    </tlLogic>
    <tlLogic id="C1" type="static" programID="0" offset="0">
        <phase duration="42" state="GGGGGGGggrrrr"/>
        <phase duration="3"  state="Gyyyyyyyyrrrr"/>
        <phase duration="42" state="GrrrrrrrrGGGG"/>
        <phase duration="3"  state="Grrrrrrrryyyy"/>
    </tlLogic>
    <tlLogic id="C2" type="static" programID="0" offset="0">
        <phase duration="90" state="GGGGGG"/>
    </tlLogic>

    <junction id="A0" type="traffic_light" x="0.00" y="0.00" incLanes="A1A0_0 A1A0_1 A1A0_2 B0A0_0 B0A0_1 B0A0_2" intLanes=":A0_0_0 :A0_0_1 :A0_0_2 :A0_3_0 :A0_3_1 :A0_3_2" shape="-9.60,9.60 9.60,9.60 9.60,-9.60 3.73,-9.07 -1.07,-7.47 -4.80,-4.80 -7.47,-1.07 -9.07,3.73">
        <request index="0" response="000000" foes="000000" cont="0"/>
        <request index="1" response="000000" foes="000000" cont="0"/>
        <request index="2" response="000000" foes="000000" cont="0"/>
        <request index="3" response="000000" foes="000000" cont="0"/>
        <request index="4" response="000000" foes="000000" cont="0"/>
        <request index="5" response="000000" foes="000000" cont="0"/>
    </junction>
    <junction id="A1" type="traffic_light" x="0.00" y="300.00" incLanes="A2A1_0 A2A1_1 A2A1_2 B1A1_0 B1A1_1 B1A1_2 A0A1_0 A0A1_1 A0A1_2" intLanes=":A1_0_0 :A1_0_1 :A1_0_2 :A1_13_0 :A1_14_0 :A1_5_0 :A1_5_1 :A1_7_0 :A1_7_1 :A1_9_0 :A1_10_0 :A1_10_1 :A1_10_2" shape="-9.60,313.60 9.60,313.60 10.04,311.38 10.60,310.60 11.38,310.04 12.38,309.71 13.60,309.60 13.60,290.40 11.38,289.96 10.60,289.40 10.04,288.62 9.71,287.62 9.60,286.40 -9.60,286.40">
        <request index="0"  response="0000000000000" foes="0000110000000" cont="0"/>
        <request index="1"  response="0000000000000" foes="0000110000000" cont="0"/>
        <request index="2"  response="0000000000000" foes="0000110000000" cont="0"/>
        <request index="3"  response="1110000000000" foes="1110110000000" cont="1"/>
        <request index="4"  response="1110000000000" foes="1110110000000" cont="1"/>